<?xml version="1.0" encoding="UTF-8"?>
<flow>
    <chain name="chain1">
        <invoker>a</invoker>
        <invoker>b</invoker>
        <batch>
            <invoker>c</invoker>
            <invoker>d</invoker>
        </batch>
    </chain>
    <chain name="chain2">
        <batch>
            <invoker>b</invoker>
        </batch>

        <batch>
            <invoker>c</invoker>
            <invoker>d</invoker>
        </batch>
    </chain>
</flow>
